<?xml version="1.0" encoding="UTF-8" standalone="yes"?>
<template encoding-version="1.3">
    <description></description>
    <groupId>a0df8e5c-0191-1000-e91d-9219c549186e</groupId>
    <name>Obligatorio Taller TBD Nifi - 315622-338835-208166</name>
    <snippet>
        <processGroups>
            <id>8862a8cc-ac35-3a1e-0000-000000000000</id>
            <parentGroupId>1597e09e-9671-3b57-0000-000000000000</parentGroupId>
            <position>
                <x>0.0</x>
                <y>0.0</y>
            </position>
            <versionedComponentId>8862a8cc-ac35-3a1e-bf01-f7b421ea8e19</versionedComponentId>
            <comments></comments>
            <contents>
                <connections>
                    <id>19c99b7c-216a-3ae6-0000-000000000000</id>
                    <parentGroupId>8862a8cc-ac35-3a1e-0000-000000000000</parentGroupId>
                    <versionedComponentId>0320c988-b62b-3e78-9a3c-00b4fb15206e</versionedComponentId>
                    <backPressureDataSizeThreshold>1 GB</backPressureDataSizeThreshold>
                    <backPressureObjectThreshold>10000</backPressureObjectThreshold>
                    <destination>
                        <groupId>8862a8cc-ac35-3a1e-0000-000000000000</groupId>
                        <id>4525eb51-e7ef-3236-0000-000000000000</id>
                        <type>PROCESSOR</type>
                        <versionedComponentId>abbc22ec-948e-3056-8c64-7fba7961f341</versionedComponentId>
                    </destination>
                    <flowFileExpiration>0 sec</flowFileExpiration>
                    <labelIndex>1</labelIndex>
                    <loadBalanceCompression>DO_NOT_COMPRESS</loadBalanceCompression>
                    <loadBalancePartitionAttribute></loadBalancePartitionAttribute>
                    <loadBalanceStatus>LOAD_BALANCE_NOT_CONFIGURED</loadBalanceStatus>
                    <loadBalanceStrategy>DO_NOT_LOAD_BALANCE</loadBalanceStrategy>
                    <name></name>
                    <selectedRelationships>Response</selectedRelationships>
                    <source>
                        <groupId>8862a8cc-ac35-3a1e-0000-000000000000</groupId>
                        <id>dfbe3324-b719-3663-0000-000000000000</id>
                        <type>PROCESSOR</type>
                        <versionedComponentId>bd112721-9bb4-33f7-b8c9-d12024908409</versionedComponentId>
                    </source>
                    <zIndex>0</zIndex>
                </connections>
                <connections>
                    <id>38395c96-58d1-3997-0000-000000000000</id>
                    <parentGroupId>8862a8cc-ac35-3a1e-0000-000000000000</parentGroupId>
                    <versionedComponentId>a60a2147-2118-3eb3-b065-99b8e90241dc</versionedComponentId>
                    <backPressureDataSizeThreshold>1 GB</backPressureDataSizeThreshold>
                    <backPressureObjectThreshold>10000</backPressureObjectThreshold>
                    <destination>
                        <groupId>8862a8cc-ac35-3a1e-0000-000000000000</groupId>
                        <id>3388d289-99fe-3082-0000-000000000000</id>
                        <type>FUNNEL</type>
                        <versionedComponentId>af728a18-9d67-3813-b1cb-6eab2b89768e</versionedComponentId>
                    </destination>
                    <flowFileExpiration>0 sec</flowFileExpiration>
                    <labelIndex>1</labelIndex>
                    <loadBalanceCompression>DO_NOT_COMPRESS</loadBalanceCompression>
                    <loadBalancePartitionAttribute></loadBalancePartitionAttribute>
                    <loadBalanceStatus>LOAD_BALANCE_NOT_CONFIGURED</loadBalanceStatus>
                    <loadBalanceStrategy>DO_NOT_LOAD_BALANCE</loadBalanceStrategy>
                    <name></name>
                    <selectedRelationships>success</selectedRelationships>
                    <source>
                        <groupId>8862a8cc-ac35-3a1e-0000-000000000000</groupId>
                        <id>4525eb51-e7ef-3236-0000-000000000000</id>
                        <type>PROCESSOR</type>
                        <versionedComponentId>abbc22ec-948e-3056-8c64-7fba7961f341</versionedComponentId>
                    </source>
                    <zIndex>0</zIndex>
                </connections>
                <connections>
                    <id>51696bee-4240-35b7-0000-000000000000</id>
                    <parentGroupId>8862a8cc-ac35-3a1e-0000-000000000000</parentGroupId>
                    <versionedComponentId>687b4df2-cad6-3721-b7f6-368eaf782cb3</versionedComponentId>
                    <backPressureDataSizeThreshold>1 GB</backPressureDataSizeThreshold>
                    <backPressureObjectThreshold>10000</backPressureObjectThreshold>
                    <destination>
                        <groupId>8862a8cc-ac35-3a1e-0000-000000000000</groupId>
                        <id>e11eab10-f77f-34a1-0000-000000000000</id>
                        <type>PROCESSOR</type>
                        <versionedComponentId>c6a9964e-a307-34e0-91aa-1008f0d90f8c</versionedComponentId>
                    </destination>
                    <flowFileExpiration>0 sec</flowFileExpiration>
                    <labelIndex>1</labelIndex>
                    <loadBalanceCompression>DO_NOT_COMPRESS</loadBalanceCompression>
                    <loadBalancePartitionAttribute></loadBalancePartitionAttribute>
                    <loadBalanceStatus>LOAD_BALANCE_NOT_CONFIGURED</loadBalanceStatus>
                    <loadBalanceStrategy>DO_NOT_LOAD_BALANCE</loadBalanceStrategy>
                    <name></name>
                    <selectedRelationships>Response</selectedRelationships>
                    <source>
                        <groupId>8862a8cc-ac35-3a1e-0000-000000000000</groupId>
                        <id>170b3006-c180-35a8-0000-000000000000</id>
                        <type>PROCESSOR</type>
                        <versionedComponentId>fd21f87f-da10-32b9-966b-a7e96b605f18</versionedComponentId>
                    </source>
                    <zIndex>0</zIndex>
                </connections>
                <connections>
                    <id>5757407e-66d6-3a34-0000-000000000000</id>
                    <parentGroupId>8862a8cc-ac35-3a1e-0000-000000000000</parentGroupId>
                    <versionedComponentId>992cb0ac-a623-35bf-b097-5479ab9eb329</versionedComponentId>
                    <backPressureDataSizeThreshold>1 GB</backPressureDataSizeThreshold>
                    <backPressureObjectThreshold>10000</backPressureObjectThreshold>
                    <destination>
                        <groupId>8862a8cc-ac35-3a1e-0000-000000000000</groupId>
                        <id>3388d289-99fe-3082-0000-000000000000</id>
                        <type>FUNNEL</type>
                        <versionedComponentId>af728a18-9d67-3813-b1cb-6eab2b89768e</versionedComponentId>
                    </destination>
                    <flowFileExpiration>0 sec</flowFileExpiration>
                    <labelIndex>1</labelIndex>
                    <loadBalanceCompression>DO_NOT_COMPRESS</loadBalanceCompression>
                    <loadBalancePartitionAttribute></loadBalancePartitionAttribute>
                    <loadBalanceStatus>LOAD_BALANCE_NOT_CONFIGURED</loadBalanceStatus>
                    <loadBalanceStrategy>DO_NOT_LOAD_BALANCE</loadBalanceStrategy>
                    <name></name>
                    <selectedRelationships>success</selectedRelationships>
                    <source>
                        <groupId>8862a8cc-ac35-3a1e-0000-000000000000</groupId>
                        <id>54a159f1-09ad-3e7f-0000-000000000000</id>
                        <type>PROCESSOR</type>
                        <versionedComponentId>cd0acbd6-ef16-37e1-86fa-9481790211df</versionedComponentId>
                    </source>
                    <zIndex>0</zIndex>
                </connections>
                <connections>
                    <id>771312ef-9650-3d86-0000-000000000000</id>
                    <parentGroupId>8862a8cc-ac35-3a1e-0000-000000000000</parentGroupId>
                    <versionedComponentId>e360c2a5-2b05-3271-91bc-beb4bd28c2c8</versionedComponentId>
                    <backPressureDataSizeThreshold>1 GB</backPressureDataSizeThreshold>
                    <backPressureObjectThreshold>10000</backPressureObjectThreshold>
                    <destination>
                        <groupId>8862a8cc-ac35-3a1e-0000-000000000000</groupId>
                        <id>54a159f1-09ad-3e7f-0000-000000000000</id>
                        <type>PROCESSOR</type>
                        <versionedComponentId>cd0acbd6-ef16-37e1-86fa-9481790211df</versionedComponentId>
                    </destination>
                    <flowFileExpiration>0 sec</flowFileExpiration>
                    <labelIndex>1</labelIndex>
                    <loadBalanceCompression>DO_NOT_COMPRESS</loadBalanceCompression>
                    <loadBalancePartitionAttribute></loadBalancePartitionAttribute>
                    <loadBalanceStatus>LOAD_BALANCE_NOT_CONFIGURED</loadBalanceStatus>
                    <loadBalanceStrategy>DO_NOT_LOAD_BALANCE</loadBalanceStrategy>
                    <name></name>
                    <selectedRelationships>Response</selectedRelationships>
                    <source>
                        <groupId>8862a8cc-ac35-3a1e-0000-000000000000</groupId>
                        <id>bc06c3ce-552f-38c2-0000-000000000000</id>
                        <type>PROCESSOR</type>
                        <versionedComponentId>06994a30-69a2-36ba-994c-e8c7464d1fd0</versionedComponentId>
                    </source>
                    <zIndex>0</zIndex>
                </connections>
                <connections>
                    <id>b56a34fd-6544-3002-0000-000000000000</id>
                    <parentGroupId>8862a8cc-ac35-3a1e-0000-000000000000</parentGroupId>
                    <versionedComponentId>de32e131-3da2-3a34-b3b3-d998e5b23c63</versionedComponentId>
                    <backPressureDataSizeThreshold>1 GB</backPressureDataSizeThreshold>
                    <backPressureObjectThreshold>10000</backPressureObjectThreshold>
                    <destination>
                        <groupId>8862a8cc-ac35-3a1e-0000-000000000000</groupId>
                        <id>21727dec-34c7-3efa-0000-000000000000</id>
                        <type>PROCESSOR</type>
                        <versionedComponentId>b674a1c6-9f72-3d03-99d5-c096d902da0e</versionedComponentId>
                    </destination>
                    <flowFileExpiration>0 sec</flowFileExpiration>
                    <labelIndex>1</labelIndex>
                    <loadBalanceCompression>DO_NOT_COMPRESS</loadBalanceCompression>
                    <loadBalancePartitionAttribute></loadBalancePartitionAttribute>
                    <loadBalanceStatus>LOAD_BALANCE_NOT_CONFIGURED</loadBalanceStatus>
                    <loadBalanceStrategy>DO_NOT_LOAD_BALANCE</loadBalanceStrategy>
                    <name></name>
                    <selectedRelationships>Response</selectedRelationships>
                    <source>
                        <groupId>8862a8cc-ac35-3a1e-0000-000000000000</groupId>
                        <id>5281a6bc-12d1-39c0-0000-000000000000</id>
                        <type>PROCESSOR</type>
                        <versionedComponentId>e0b35264-3a2e-3310-9c77-4c8b4c57fa17</versionedComponentId>
                    </source>
                    <zIndex>0</zIndex>
                </connections>
                <connections>
                    <id>c8936dab-3125-3b56-0000-000000000000</id>
                    <parentGroupId>8862a8cc-ac35-3a1e-0000-000000000000</parentGroupId>
                    <versionedComponentId>811cbe85-7a65-36a3-8374-5401c7b1a64b</versionedComponentId>
                    <backPressureDataSizeThreshold>1 GB</backPressureDataSizeThreshold>
                    <backPressureObjectThreshold>10000</backPressureObjectThreshold>
                    <destination>
                        <groupId>8862a8cc-ac35-3a1e-0000-000000000000</groupId>
                        <id>3388d289-99fe-3082-0000-000000000000</id>
                        <type>FUNNEL</type>
                        <versionedComponentId>af728a18-9d67-3813-b1cb-6eab2b89768e</versionedComponentId>
                    </destination>
                    <flowFileExpiration>0 sec</flowFileExpiration>
                    <labelIndex>1</labelIndex>
                    <loadBalanceCompression>DO_NOT_COMPRESS</loadBalanceCompression>
                    <loadBalancePartitionAttribute></loadBalancePartitionAttribute>
                    <loadBalanceStatus>LOAD_BALANCE_NOT_CONFIGURED</loadBalanceStatus>
                    <loadBalanceStrategy>DO_NOT_LOAD_BALANCE</loadBalanceStrategy>
                    <name></name>
                    <selectedRelationships>success</selectedRelationships>
                    <source>
                        <groupId>8862a8cc-ac35-3a1e-0000-000000000000</groupId>
                        <id>21727dec-34c7-3efa-0000-000000000000</id>
                        <type>PROCESSOR</type>
                        <versionedComponentId>b674a1c6-9f72-3d03-99d5-c096d902da0e</versionedComponentId>
                    </source>
                    <zIndex>0</zIndex>
                </connections>
                <connections>
                    <id>ca1f76a9-772f-34cb-0000-000000000000</id>
                    <parentGroupId>8862a8cc-ac35-3a1e-0000-000000000000</parentGroupId>
                    <versionedComponentId>a7f25d7b-1bd9-39dd-9ba5-07e60f734379</versionedComponentId>
                    <backPressureDataSizeThreshold>1 GB</backPressureDataSizeThreshold>
                    <backPressureObjectThreshold>10000</backPressureObjectThreshold>
                    <destination>
                        <groupId>8862a8cc-ac35-3a1e-0000-000000000000</groupId>
                        <id>3388d289-99fe-3082-0000-000000000000</id>
                        <type>FUNNEL</type>
                        <versionedComponentId>af728a18-9d67-3813-b1cb-6eab2b89768e</versionedComponentId>
                    </destination>
                    <flowFileExpiration>0 sec</flowFileExpiration>
                    <labelIndex>1</labelIndex>
                    <loadBalanceCompression>DO_NOT_COMPRESS</loadBalanceCompression>
                    <loadBalancePartitionAttribute></loadBalancePartitionAttribute>
                    <loadBalanceStatus>LOAD_BALANCE_NOT_CONFIGURED</loadBalanceStatus>
                    <loadBalanceStrategy>DO_NOT_LOAD_BALANCE</loadBalanceStrategy>
                    <name></name>
                    <selectedRelationships>success</selectedRelationships>
                    <source>
                        <groupId>8862a8cc-ac35-3a1e-0000-000000000000</groupId>
                        <id>e11eab10-f77f-34a1-0000-000000000000</id>
                        <type>PROCESSOR</type>
                        <versionedComponentId>c6a9964e-a307-34e0-91aa-1008f0d90f8c</versionedComponentId>
                    </source>
                    <zIndex>0</zIndex>
                </connections>
                <connections>
                    <id>d4ac3344-e516-34db-0000-000000000000</id>
                    <parentGroupId>8862a8cc-ac35-3a1e-0000-000000000000</parentGroupId>
                    <versionedComponentId>cfb9e7c2-0245-3e4b-ad48-72e3848f355b</versionedComponentId>
                    <backPressureDataSizeThreshold>1 GB</backPressureDataSizeThreshold>
                    <backPressureObjectThreshold>10000</backPressureObjectThreshold>
                    <destination>
                        <groupId>8862a8cc-ac35-3a1e-0000-000000000000</groupId>
                        <id>11c7ca58-6211-3561-0000-000000000000</id>
                        <type>PROCESSOR</type>
                        <versionedComponentId>8fcf8eb9-4169-34e2-b912-e7c578a98eaf</versionedComponentId>
                    </destination>
                    <flowFileExpiration>0 sec</flowFileExpiration>
                    <labelIndex>1</labelIndex>
                    <loadBalanceCompression>DO_NOT_COMPRESS</loadBalanceCompression>
                    <loadBalancePartitionAttribute></loadBalancePartitionAttribute>
                    <loadBalanceStatus>LOAD_BALANCE_NOT_CONFIGURED</loadBalanceStatus>
                    <loadBalanceStrategy>DO_NOT_LOAD_BALANCE</loadBalanceStrategy>
                    <name></name>
                    <source>
                        <groupId>8862a8cc-ac35-3a1e-0000-000000000000</groupId>
                        <id>3388d289-99fe-3082-0000-000000000000</id>
                        <type>FUNNEL</type>
                        <versionedComponentId>af728a18-9d67-3813-b1cb-6eab2b89768e</versionedComponentId>
                    </source>
                    <zIndex>0</zIndex>
                </connections>
                <funnels>
                    <id>3388d289-99fe-3082-0000-000000000000</id>
                    <parentGroupId>8862a8cc-ac35-3a1e-0000-000000000000</parentGroupId>
                    <position>
                        <x>824.0</x>
                        <y>808.0</y>
                    </position>
                    <versionedComponentId>af728a18-9d67-3813-b1cb-6eab2b89768e</versionedComponentId>
                </funnels>
                <processors>
                    <id>11c7ca58-6211-3561-0000-000000000000</id>
                    <parentGroupId>8862a8cc-ac35-3a1e-0000-000000000000</parentGroupId>
                    <position>
                        <x>672.0</x>
                        <y>992.0</y>
                    </position>
                    <versionedComponentId>8fcf8eb9-4169-34e2-b912-e7c578a98eaf</versionedComponentId>
                    <bundle>
                        <artifact>nifi-hadoop-nar</artifact>
                        <group>org.apache.nifi</group>
                        <version>1.27.0</version>
                    </bundle>
                    <config>
                        <backoffMechanism>PENALIZE_FLOWFILE</backoffMechanism>
                        <bulletinLevel>WARN</bulletinLevel>
                        <comments></comments>
                        <concurrentlySchedulableTaskCount>1</concurrentlySchedulableTaskCount>
                        <descriptors>
                            <entry>
<key>Hadoop Configuration Resources</key>
<value>
    <name>Hadoop Configuration Resources</name>
</value>
                            </entry>
                            <entry>
<key>kerberos-credentials-service</key>
<value>
    <identifiesControllerService>org.apache.nifi.kerberos.KerberosCredentialsService</identifiesControllerService>
    <name>kerberos-credentials-service</name>
</value>
                            </entry>
                            <entry>
<key>kerberos-user-service</key>
<value>
    <identifiesControllerService>org.apache.nifi.kerberos.KerberosUserService</identifiesControllerService>
    <name>kerberos-user-service</name>
</value>
                            </entry>
                            <entry>
<key>Kerberos Principal</key>
<value>
    <name>Kerberos Principal</name>
</value>
                            </entry>
                            <entry>
<key>Kerberos Keytab</key>
<value>
    <name>Kerberos Keytab</name>
</value>
                            </entry>
                            <entry>
<key>Kerberos Password</key>
<value>
    <name>Kerberos Password</name>
</value>
                            </entry>
                            <entry>
<key>Kerberos Relogin Period</key>
<value>
    <name>Kerberos Relogin Period</name>
</value>
                            </entry>
                            <entry>
<key>Additional Classpath Resources</key>
<value>
    <name>Additional Classpath Resources</name>
</value>
                            </entry>
                            <entry>
<key>Directory</key>
<value>
    <name>Directory</name>
</value>
                            </entry>
                            <entry>
<key>Conflict Resolution Strategy</key>
<value>
    <name>Conflict Resolution Strategy</name>
</value>
                            </entry>
                            <entry>
<key>Append Mode</key>
<value>
    <dependencies>
        <dependentValues>append</dependentValues>
        <propertyName>Conflict Resolution Strategy</propertyName>
    </dependencies>
    <name>Append Mode</name>
</value>
                            </entry>
                            <entry>
<key>writing-strategy</key>
<value>
    <name>writing-strategy</name>
</value>
                            </entry>
                            <entry>
<key>Block Size</key>
<value>
    <name>Block Size</name>
</value>
                            </entry>
                            <entry>
<key>IO Buffer Size</key>
<value>
    <name>IO Buffer Size</name>
</value>
                            </entry>
                            <entry>
<key>Replication</key>
<value>
    <name>Replication</name>
</value>
                            </entry>
                            <entry>
<key>Permissions umask</key>
<value>
    <name>Permissions umask</name>
</value>
                            </entry>
                            <entry>
<key>Remote Owner</key>
<value>
    <name>Remote Owner</name>
</value>
                            </entry>
                            <entry>
<key>Remote Group</key>
<value>
    <name>Remote Group</name>
</value>
                            </entry>
                            <entry>
<key>Compression codec</key>
<value>
    <name>Compression codec</name>
</value>
                            </entry>
                            <entry>
<key>Ignore Locality</key>
<value>
    <name>Ignore Locality</name>
</value>
                            </entry>
                        </descriptors>
                        <executionNode>ALL</executionNode>
                        <lossTolerant>false</lossTolerant>
                        <maxBackoffPeriod>10 mins</maxBackoffPeriod>
                        <penaltyDuration>30 sec</penaltyDuration>
                        <properties>
                            <entry>
<key>Hadoop Configuration Resources</key>
<value>/home/ec2-user/hadoop/etc/hadoop/hdfs-site.xml, /home/ec2-user/hadoop/etc/hadoop/core-site.xml
</value>
                            </entry>
                            <entry>
<key>kerberos-credentials-service</key>
                            </entry>
                            <entry>
<key>kerberos-user-service</key>
                            </entry>
                            <entry>
<key>Kerberos Principal</key>
                            </entry>
                            <entry>
<key>Kerberos Keytab</key>
                            </entry>
                            <entry>
<key>Kerberos Password</key>
                            </entry>
                            <entry>
<key>Kerberos Relogin Period</key>
<value>4 hours</value>
                            </entry>
                            <entry>
<key>Additional Classpath Resources</key>
                            </entry>
                            <entry>
<key>Directory</key>
<value>/user/ec2-user/Obligatorio_315622_338835_208166/MeteoSmart/lnd</value>
                            </entry>
                            <entry>
<key>Conflict Resolution Strategy</key>
<value>replace</value>
                            </entry>
                            <entry>
<key>Append Mode</key>
<value>DEFAULT</value>
                            </entry>
                            <entry>
<key>writing-strategy</key>
<value>writeAndRename</value>
                            </entry>
                            <entry>
<key>Block Size</key>
                            </entry>
                            <entry>
<key>IO Buffer Size</key>
                            </entry>
                            <entry>
<key>Replication</key>
                            </entry>
                            <entry>
<key>Permissions umask</key>
                            </entry>
                            <entry>
<key>Remote Owner</key>
                            </entry>
                            <entry>
<key>Remote Group</key>
                            </entry>
                            <entry>
<key>Compression codec</key>
<value>NONE</value>
                            </entry>
                            <entry>
<key>Ignore Locality</key>
<value>false</value>
                            </entry>
                        </properties>
                        <retryCount>10</retryCount>
                        <runDurationMillis>0</runDurationMillis>
                        <schedulingPeriod>0 sec</schedulingPeriod>
                        <schedulingStrategy>TIMER_DRIVEN</schedulingStrategy>
                        <yieldDuration>1 sec</yieldDuration>
                    </config>
                    <executionNodeRestricted>false</executionNodeRestricted>
                    <name>PutHDFS</name>
                    <relationships>
                        <autoTerminate>true</autoTerminate>
                        <name>failure</name>
                        <retry>false</retry>
                    </relationships>
                    <relationships>
                        <autoTerminate>true</autoTerminate>
                        <name>success</name>
                        <retry>false</retry>
                    </relationships>
                    <state>STOPPED</state>
                    <style/>
                    <type>org.apache.nifi.processors.hadoop.PutHDFS</type>
                </processors>
                <processors>
                    <id>170b3006-c180-35a8-0000-000000000000</id>
                    <parentGroupId>8862a8cc-ac35-3a1e-0000-000000000000</parentGroupId>
                    <position>
                        <x>472.0</x>
                        <y>192.0</y>
                    </position>
                    <versionedComponentId>fd21f87f-da10-32b9-966b-a7e96b605f18</versionedComponentId>
                    <bundle>
                        <artifact>nifi-standard-nar</artifact>
                        <group>org.apache.nifi</group>
                        <version>1.27.0</version>
                    </bundle>
                    <config>
                        <backoffMechanism>PENALIZE_FLOWFILE</backoffMechanism>
                        <bulletinLevel>WARN</bulletinLevel>
                        <comments></comments>
                        <concurrentlySchedulableTaskCount>1</concurrentlySchedulableTaskCount>
                        <descriptors>
                            <entry>
<key>HTTP Method</key>
<value>
    <name>HTTP Method</name>
</value>
                            </entry>
                            <entry>
<key>Remote URL</key>
<value>
    <name>Remote URL</name>
</value>
                            </entry>
                            <entry>
<key>disable-http2</key>
<value>
    <name>disable-http2</name>
</value>
                            </entry>
                            <entry>
<key>SSL Context Service</key>
<value>
    <identifiesControllerService>org.apache.nifi.ssl.SSLContextService</identifiesControllerService>
    <name>SSL Context Service</name>
</value>
                            </entry>
                            <entry>
<key>Connection Timeout</key>
<value>
    <name>Connection Timeout</name>
</value>
                            </entry>
                            <entry>
<key>Read Timeout</key>
<value>
    <name>Read Timeout</name>
</value>
                            </entry>
                            <entry>
<key>Socket Write Timeout</key>
<value>
    <name>Socket Write Timeout</name>
</value>
                            </entry>
                            <entry>
<key>idle-timeout</key>
<value>
    <name>idle-timeout</name>
</value>
                            </entry>
                            <entry>
<key>max-idle-connections</key>
<value>
    <name>max-idle-connections</name>
</value>
                            </entry>
                            <entry>
<key>proxy-configuration-service</key>
<value>
    <identifiesControllerService>org.apache.nifi.proxy.ProxyConfigurationService</identifiesControllerService>
    <name>proxy-configuration-service</name>
</value>
                            </entry>
                            <entry>
<key>Proxy Host</key>
<value>
    <name>Proxy Host</name>
</value>
                            </entry>
                            <entry>
<key>Proxy Port</key>
<value>
    <dependencies>
        <propertyName>Proxy Host</propertyName>
    </dependencies>
    <name>Proxy Port</name>
</value>
                            </entry>
                            <entry>
<key>Proxy Type</key>
<value>
    <dependencies>
        <propertyName>Proxy Host</propertyName>
    </dependencies>
    <name>Proxy Type</name>
</value>
                            </entry>
                            <entry>
<key>invokehttp-proxy-user</key>
<value>
    <dependencies>
        <propertyName>Proxy Host</propertyName>
    </dependencies>
    <name>invokehttp-proxy-user</name>
</value>
                            </entry>
                            <entry>
<key>invokehttp-proxy-password</key>
<value>
    <dependencies>
        <propertyName>Proxy Host</propertyName>
    </dependencies>
    <name>invokehttp-proxy-password</name>
</value>
                            </entry>
                            <entry>
<key>oauth2-access-token-provider</key>
<value>
    <identifiesControllerService>org.apache.nifi.oauth2.OAuth2AccessTokenProvider</identifiesControllerService>
    <name>oauth2-access-token-provider</name>
</value>
                            </entry>
                            <entry>
<key>Basic Authentication Username</key>
<value>